@<TRIPOS>MOLECULE
LIG
  125   130     1     0     0
SMALL
bcc


@<TRIPOS>ATOM
      1 O           -4.7470    -2.3000    -2.0360 os         1 LIG      -0.319900
      2 C           -4.6080    -1.4220    -0.9630 ca         1 LIG       0.093100
      3 C1          -5.0330    -0.0830    -1.0170 ca         1 LIG      -0.168000
      4 C2          -5.1500     0.6970     0.1400 ca         1 LIG      -0.061300
      5 C3          -5.6340     2.1130     0.0680 c3         1 LIG       0.023200
      6 C4          -4.6030     3.1810    -0.1360 ca         1 LIG      -0.061300
      7 C5          -3.9700     3.7880     0.9560 ca         1 LIG      -0.168000
      8 C6          -3.0210     4.8110     0.7810 ca         1 LIG       0.093100
      9 O1          -2.5870     5.6200     1.8290 os         1 LIG      -0.319900
     10 C7          -2.4730     5.0530    -0.5010 ca         1 LIG      -0.061300
     11 C8          -1.2830     5.9390    -0.7070 c3         1 LIG       0.023200
     12 C9           0.0580     5.2760    -0.8020 ca         1 LIG      -0.061300
     13 C10          0.8280     5.0440     0.3440 ca         1 LIG      -0.168000
     14 C11          2.1000     4.4490     0.2680 ca         1 LIG       0.093100
     15 O2           2.9990     4.4590     1.3320 os         1 LIG      -0.319900
     16 C12          2.5100     3.8120    -0.9270 ca         1 LIG      -0.061300
     17 C13          3.7290     2.9420    -0.9920 c3         1 LIG       0.023200
     18 C14          3.5250     1.4640    -0.8570 ca         1 LIG      -0.061300
     19 C15          3.5420     0.8480     0.4000 ca         1 LIG      -0.168000
     20 C16          3.3810    -0.5420     0.5410 ca         1 LIG       0.093100
     21 O3           3.6700    -1.2170     1.7250 os         1 LIG      -0.319900
     22 C17          2.9130    -1.3120    -0.5510 ca         1 LIG      -0.061300
     23 C18          2.4740    -2.7360    -0.3950 c3         1 LIG       0.023200
     24 C19          1.0070    -2.9870    -0.2260 ca         1 LIG      -0.061300
     25 C20          0.4220    -3.0020     1.0460 ca         1 LIG      -0.168000
     26 C21         -0.9480    -3.2640     1.2230 ca         1 LIG       0.093100
     27 O4          -1.5020    -3.5620     2.4660 os         1 LIG      -0.319900
     28 C22         -1.8210    -3.2370     0.1090 ca         1 LIG      -0.061300
     29 C23         -3.3120    -3.2480     0.2610 c3         1 LIG       0.023200
     30 C24         -4.0160    -1.9270     0.2200 ca         1 LIG      -0.061300
     31 C25         -4.2210    -1.1850     1.3900 ca         1 LIG      -0.168000
     32 C26         -4.9050     0.0440     1.3720 ca         1 LIG       0.093100
     33 O5          -5.3690     0.6630     2.5310 os         1 LIG      -0.319900
     34 C27         -1.2270    -3.3180    -1.1560 ca         1 LIG      -0.168000
     35 C28          0.1700    -3.3370    -1.3130 ca         1 LIG       0.093100
     36 O6           0.7880    -3.6960    -2.5100 os         1 LIG      -0.319900
     37 C29          2.9890    -0.7170    -1.8160 ca         1 LIG      -0.168000
     38 C30          3.4260     0.6090    -1.9810 ca         1 LIG       0.093100
     39 O7           3.7800     1.1360    -3.2220 os         1 LIG      -0.319900
     40 C31          1.7890     4.1260    -2.0850 ca         1 LIG      -0.168000
     41 C32          0.6600     4.9640    -2.0450 ca         1 LIG       0.093100
     42 O8           0.0940     5.5190    -3.1900 os         1 LIG      -0.319900
     43 C33         -3.1690     4.5180    -1.5920 ca         1 LIG      -0.168000
     44 C34         -4.3050     3.7080    -1.4150 ca         1 LIG       0.093100
     45 O9          -5.1760     3.3960    -2.4580 os         1 LIG      -0.319900
     46 H           -5.2990     0.3620    -1.9880 ha         1 LIG       0.146000
     47 H1          -6.3730     2.1890    -0.7790 hc         1 LIG       0.060700
     48 H2          -6.1830     2.3330     1.0280 hc         1 LIG       0.060700
     49 H3          -4.2390     3.4660     1.9740 ha         1 LIG       0.146000
     50 H4          -1.4400     6.5230    -1.6580 hc         1 LIG       0.060700
     51 H5          -1.2530     6.6710     0.1480 hc         1 LIG       0.060700
     52 H6           0.4310     5.3530     1.3240 ha         1 LIG       0.146000
     53 H7           4.2390     3.1250    -1.9800 hc         1 LIG       0.060700
     54 H8           4.4280     3.2770    -0.1740 hc         1 LIG       0.060700
     55 H9           3.7050     1.4680     1.2950 ha         1 LIG       0.146000
     56 H10          2.8140    -3.3100    -1.3040 hc         1 LIG       0.060700
     57 H11          3.0090    -3.1590     0.5010 hc         1 LIG       0.060700
     58 H12          1.0570    -2.8210     1.9270 ha         1 LIG       0.146000
     59 H13         -3.7440    -3.8880    -0.5600 hc         1 LIG       0.060700
     60 H14         -3.5480    -3.7430     1.2460 hc         1 LIG       0.060700
     61 H15         -3.8520    -1.5860     2.3470 ha         1 LIG       0.146000
     62 H16         -1.8730    -3.3880    -2.0450 ha         1 LIG       0.146000
     63 H17          2.7170    -1.3120    -2.7020 ha         1 LIG       0.146000
     64 H18          2.1280     3.7210    -3.0510 ha         1 LIG       0.146000
     65 H19         -2.8260     4.7560    -2.6110 ha         1 LIG       0.146000
     66 C35         -0.6170    -4.2490     3.3620 c3         1 LIG       0.028400
     67 H20          0.2030    -4.7690     2.8000 h1         1 LIG       0.030700
     68 H21         -0.1730    -3.4720     4.0390 h1         1 LIG       0.030700
     69 C36         -1.3330    -5.3200     4.2060 c          1 LIG       0.908600
     70 O10         -1.1640    -5.2770     5.4680 o          1 LIG      -0.880300
     71 O11         -1.9580    -6.2800     3.6680 o          1 LIG      -0.880300
     72 C37          4.7270    -0.6320     2.4990 c3         1 LIG       0.028400
     73 H23          5.3890     0.0080     1.8590 h1         1 LIG       0.030700
     74 H24          4.2400     0.0020     3.2870 h1         1 LIG       0.030700
     75 C38          5.6290    -1.6850     3.1700 c          1 LIG       0.908600
     76 O12          6.2490    -2.5550     2.4920 o          1 LIG      -0.880300
     77 O13          5.8310    -1.5670     4.4230 o          1 LIG      -0.880300
     78 C39          2.9010     5.6110     2.1820 c3         1 LIG       0.028400
     79 H26          2.4170     6.4680     1.6460 h1         1 LIG       0.030700
     80 H27          2.2700     5.3130     3.0610 h1         1 LIG       0.030700
     81 C40          4.2730     6.1070     2.6770 c          1 LIG       0.908600
     82 O14          4.4130     6.2780     3.9320 o          1 LIG      -0.880300
     83 O15          5.1830     6.4530     1.8690 o          1 LIG      -0.880300
     84 C41         -3.5710     5.8510     2.8480 c3         1 LIG       0.028400
     85 H29         -4.6070     5.6840     2.4540 h1         1 LIG       0.030700
     86 H30         -3.3610     5.1210     3.6730 h1         1 LIG       0.030700
     87 C42         -3.5270     7.2870     3.4060 c          1 LIG       0.908600
     88 O16         -3.6830     8.2940     2.6560 o          1 LIG      -0.880300
     89 O17         -3.4580     7.4180     4.6710 o          1 LIG      -0.880300
     90 C43         -5.7440    -0.2420     3.5790 c3         1 LIG       0.028400
     91 H32         -5.9750    -1.2600     3.1690 h1         1 LIG       0.030700
     92 H33         -4.8700    -0.3090     4.2790 h1         1 LIG       0.030700
     93 C44         -6.9920     0.2250     4.3530 c          1 LIG       0.908600
     94 O18         -8.0970     0.4260     3.7710 o          1 LIG      -0.880300
     95 O19         -6.9030     0.2760     5.6230 o          1 LIG      -0.880300
     96 C45          1.0290     5.7870    -4.2450 c3         1 LIG       0.028400
     97 H35          2.0720     5.8780    -3.8450 h1         1 LIG       0.030700
     98 H36          0.9730     4.9200    -4.9560 h1         1 LIG       0.030700
     99 C46          0.7200     7.0940    -5.0000 c          1 LIG       0.908600
    100 O20          0.6720     8.2090    -4.4030 o          1 LIG      -0.880300
    101 O21          0.6430     7.0290    -6.2700 o          1 LIG      -0.880300
    102 C47         -5.2880     4.4130    -3.4630 c3         1 LIG       0.028400
    103 H38         -4.9830     5.4140    -3.0600 h1         1 LIG       0.030700
    104 H39         -4.6000     4.1200    -4.3000 h1         1 LIG       0.030700
    105 C48         -6.7230     4.5640    -4.0040 c          1 LIG       0.908600
    106 O22         -7.6930     4.8400    -3.2400 o          1 LIG      -0.880300
    107 O23         -6.8760     4.5280    -5.2680 o          1 LIG      -0.880300
    108 C49         -5.8860    -2.0420    -2.8700 c3         1 LIG       0.028400
    109 H41         -6.6660    -1.4570    -2.3170 h1         1 LIG       0.030700
    110 H42         -5.5190    -1.4440    -3.7460 h1         1 LIG       0.030700
    111 C50         -6.5620    -3.3320    -3.3730 c          1 LIG       0.908600
    112 O24         -7.0140    -4.2000    -2.5700 o          1 LIG      -0.880300
    113 O25         -6.7650    -3.4330    -4.6270 o          1 LIG      -0.880300
    114 C51          0.0610    -4.6580    -3.2880 c3         1 LIG       0.028400
    115 H44         -0.6510    -5.2400    -2.6470 h1         1 LIG       0.030700
    116 H45         -0.5130    -4.0830    -4.0620 h1         1 LIG       0.030700
    117 C52          0.9810    -5.6810    -3.9820 c          1 LIG       0.908600
    118 O26          1.7700    -6.4180    -3.3220 o          1 LIG      -0.880300
    119 O27          0.8230    -5.8490    -5.2350 o          1 LIG      -0.880300
    120 C53          4.3350     0.1800    -4.1360 c3         1 LIG       0.028400
    121 H47          4.7500    -0.7070    -3.5900 h1         1 LIG       0.030700
    122 H48          3.5000    -0.1500    -4.8090 h1         1 LIG       0.030700
    123 C54          5.4810     0.7620    -4.9860 c          1 LIG       0.908600
    124 O28          6.5190     1.2510    -4.4520 o          1 LIG      -0.880300
    125 O29          5.4030     0.6150    -6.2490 o          1 LIG      -0.880300
@<TRIPOS>BOND
     1     1     2 1   
     2     1   108 1   
     3     2     3 ar  
     4     2    30 ar  
     5     3     4 ar  
     6     3    46 1   
     7     4     5 1   
     8     4    32 ar  
     9     5     6 1   
    10     5    47 1   
    11     5    48 1   
    12     6     7 ar  
    13     6    44 ar  
    14     7     8 ar  
    15     7    49 1   
    16     8     9 1   
    17     8    10 ar  
    18     9    84 1   
    19    10    11 1   
    20    10    43 ar  
    21    11    12 1   
    22    11    50 1   
    23    11    51 1   
    24    12    13 ar  
    25    12    41 ar  
    26    13    14 ar  
    27    13    52 1   
    28    14    15 1   
    29    14    16 ar  
    30    15    78 1   
    31    16    17 1   
    32    16    40 ar  
    33    17    18 1   
    34    17    53 1   
    35    17    54 1   
    36    18    19 ar  
    37    18    38 ar  
    38    19    20 ar  
    39    19    55 1   
    40    20    21 1   
    41    20    22 ar  
    42    21    72 1   
    43    22    23 1   
    44    22    37 ar  
    45    23    24 1   
    46    23    56 1   
    47    23    57 1   
    48    24    25 ar  
    49    24    35 ar  
    50    25    26 ar  
    51    25    58 1   
    52    26    27 1   
    53    26    28 ar  
    54    27    66 1   
    55    28    29 1   
    56    28    34 ar  
    57    29    30 1   
    58    29    59 1   
    59    29    60 1   
    60    30    31 ar  
    61    31    32 ar  
    62    31    61 1   
    63    32    33 1   
    64    33    90 1   
    65    34    35 ar  
    66    34    62 1   
    67    35    36 1   
    68    36   114 1   
    69    37    38 ar  
    70    37    63 1   
    71    38    39 1   
    72    39   120 1   
    73    40    41 ar  
    74    40    64 1   
    75    41    42 1   
    76    42    96 1   
    77    43    44 ar  
    78    43    65 1   
    79    44    45 1   
    80    45   102 1   
    81    66    67 1   
    82    66    68 1   
    83    66    69 1   
    84    69    70 1   
    85    69    71 1   
    86    72    73 1   
    87    72    74 1   
    88    72    75 1   
    89    75    76 1   
    90    75    77 1   
    91    78    79 1   
    92    78    80 1   
    93    78    81 1   
    94    81    82 1   
    95    81    83 1   
    96    84    85 1   
    97    84    86 1   
    98    84    87 1   
    99    87    88 1   
   100    87    89 1   
   101    90    91 1   
   102    90    92 1   
   103    90    93 1   
   104    93    94 1   
   105    93    95 1   
   106    96    97 1   
   107    96    98 1   
   108    96    99 1   
   109    99   100 1   
   110    99   101 1   
   111   102   103 1   
   112   102   104 1   
   113   102   105 1   
   114   105   106 1   
   115   105   107 1   
   116   108   109 1   
   117   108   110 1   
   118   108   111 1   
   119   111   112 1   
   120   111   113 1   
   121   114   115 1   
   122   114   116 1   
   123   114   117 1   
   124   117   118 1   
   125   117   119 1   
   126   120   121 1   
   127   120   122 1   
   128   120   123 1   
   129   123   124 1   
   130   123   125 1   
@<TRIPOS>SUBSTRUCTURE
     1 LIG         1 TEMP              0 ****  ****    0 ROOT
