@<TRIPOS>MOLECULE
LIG
   28    29     1     0     0
SMALL
bcc


@<TRIPOS>ATOM
      1 C            0.9560    -0.1180     0.4130 c3         1 LIG      -0.043400
      2 N            2.3830    -0.0740     0.1050 na         1 LIG       0.056900
      3 C1           2.9310     1.0420    -0.4650 cc         1 LIG      -0.012800
      4 C2           4.2950     1.1030    -0.7830 cd         1 LIG      -0.121000
      5 C3           5.1230    -0.0000    -0.5220 cd         1 LIG       0.034000
      6 C4           4.5480    -1.1420     0.0590 cd         1 LIG      -0.121000
      7 C5           3.1800    -1.1550     0.3650 cc         1 LIG      -0.012800
      8 C6           6.5510     0.0390    -0.8470 cc         1 LIG       0.034000
      9 C7           7.3250     1.1730    -0.5550 cc         1 LIG      -0.121000
     10 C8           8.6900     1.1870    -0.8740 cd         1 LIG      -0.012800
     11 N1           9.2910     0.1150    -1.4740 na         1 LIG       0.056900
     12 C9           8.5470    -0.9960    -1.7650 cd         1 LIG      -0.012800
     13 C10          7.1800    -1.0580    -1.4590 cc         1 LIG      -0.121000
     14 C11         10.7180     0.1480    -1.7820 c3         1 LIG      -0.043400
     15 H            0.5900     0.9140     0.6660 h1         1 LIG       0.117700
     16 H1           0.7770    -0.7990     1.2900 h1         1 LIG       0.117700
     17 H2           0.4000    -0.5070    -0.4860 h1         1 LIG       0.117700
     18 H3           2.2520     1.9010    -0.6670 h4         1 LIG       0.230500
     19 H4           4.6890     2.0260    -1.2460 ha         1 LIG       0.203000
     20 H5           5.1510    -2.0380     0.2940 ha         1 LIG       0.203000
     21 H6           2.7010    -2.0460     0.8300 h4         1 LIG       0.230500
     22 H7           6.8870     2.0620    -0.0670 ha         1 LIG       0.203000
     23 H8           9.3270     2.0720    -0.6470 h4         1 LIG       0.230500
     24 H9           9.0680    -1.8490    -2.2540 h4         1 LIG       0.230500
     25 H10          6.6210    -1.9740    -1.7190 ha         1 LIG       0.203000
     26 H11         11.0320     1.2030    -2.0140 h1         1 LIG       0.117700
     27 H12         10.9310    -0.5050    -2.6730 h1         1 LIG       0.117700
     28 H13         11.2930    -0.2300    -0.8910 h1         1 LIG       0.117700
@<TRIPOS>BOND
     1     1     2 1   
     2     1    15 1   
     3     1    16 1   
     4     1    17 1   
     5     2     3 1   
     6     2     7 1   
     7     3     4 2   
     8     3    18 1   
     9     4     5 1   
    10     4    19 1   
    11     5     6 1   
    12     5     8 2   
    13     6     7 2   
    14     6    20 1   
    15     7    21 1   
    16     8     9 1   
    17     8    13 1   
    18     9    10 2   
    19     9    22 1   
    20    10    11 1   
    21    10    23 1   
    22    11    12 1   
    23    11    14 1   
    24    12    13 2   
    25    12    24 1   
    26    13    25 1   
    27    14    26 1   
    28    14    27 1   
    29    14    28 1   
@<TRIPOS>SUBSTRUCTURE
     1 LIG         1 TEMP              0 ****  ****    0 ROOT
